lib/123Bus/ieee123_VLN.Txt

SYMMETRICAL COMPONENT VOLTAGES BY BUS (for 3-phase buses)

Bus       Mag:   V1 (kV)    p.u.     V2 (kV)   %V2/V1    V0 (kV)    %V0/V1

150          2.402          1  5.344E-006  0.0002225 4.285E-006 0.0001784
150r         2.507      1.044  7.507E-006  0.0002995 6.02E-006 0.0002401
149          2.507      1.044  7.508E-006  0.0002995 6.02E-006 0.0002402
1             2.49      1.037   0.004536     0.1822  0.005976      0.24
2            2.498       1.04          0          0         0         0
3            2.484      1.034          0          0         0         0
7            2.478      1.032   0.007839     0.3164   0.01059    0.4274
4            2.483      1.034          0          0         0         0
5            2.481      1.033          0          0         0         0
6            2.479      1.032          0          0         0         0
8             2.47      1.028    0.01002     0.4055   0.01361     0.551
12           2.489      1.036          0          0         0         0
9            2.452      1.021          0          0         0         0
13           2.458      1.024    0.01313      0.534   0.01767    0.7189
9r           2.437      1.015          0          0         0         0
14           2.435      1.014          0          0         0         0
34           2.452      1.021          0          0         0         0
18           2.444      1.018    0.01317      0.539   0.02247    0.9193
11           2.434      1.014          0          0         0         0
10           2.435      1.014          0          0         0         0
15           2.451      1.021          0          0         0         0
16           2.449       1.02          0          0         0         0
17            2.45       1.02          0          0         0         0
19           2.418      1.007          0          0         0         0
21           2.443      1.017    0.01334      0.546   0.02318    0.9491
20           2.416      1.006          0          0         0         0
22            2.47      1.028          0          0         0         0
23           2.442      1.017    0.01366     0.5593   0.02425    0.9929
24           2.431      1.012          0          0         0         0
25           2.441      1.016    0.01401      0.574   0.02549     1.044
25r          2.417      1.006          0          0         0         0
26           2.417      1.006          0          0         0         0
28           2.441      1.016    0.01417     0.5804   0.02604     1.067
27           2.416      1.006          0          0         0         0
31           2.414      1.005          0          0         0         0
33           2.413      1.005          0          0         0         0
29           2.441      1.016    0.01432     0.5869   0.02658     1.089
30            2.44      1.016    0.01434     0.5875   0.02656     1.088
250           2.44      1.016    0.01434     0.5875   0.02656     1.088
32           2.413      1.005          0          0         0         0
35           2.439      1.016    0.01364      0.559   0.02225     0.912
36           2.412      1.004          0          0         0         0
40           2.437      1.014     0.0139     0.5706   0.02224    0.9129
37            2.41      1.003          0          0         0         0
38           2.465      1.026          0          0         0         0
39           2.464      1.026          0          0         0         0
41           2.433      1.013          0          0         0         0
42           2.434      1.013    0.01416     0.5818    0.0223    0.9164
43            2.46      1.024          0          0         0         0
44           2.432      1.013    0.01442     0.5928   0.02247    0.9239
45           2.404      1.001          0          0         0         0
47            2.43      1.012    0.01456     0.5994   0.02217    0.9122
46           2.403          1          0          0         0         0
48           2.429      1.011    0.01462     0.6017   0.02212    0.9106
49           2.429      1.011    0.01462     0.6017   0.02181    0.8977
50           2.429      1.011    0.01472     0.6063   0.02192    0.9027
51           2.429      1.011    0.01481     0.6096   0.02217    0.9127
151          2.429      1.011    0.01481     0.6096   0.02217    0.9127
52            2.45       1.02    0.01571     0.6412    0.0211    0.8611
53           2.446      1.019    0.01687     0.6897   0.02243     0.917
54           2.444      1.018    0.01752     0.7167   0.02302    0.9419
55           2.444      1.018    0.01753     0.7173   0.02308    0.9444
57           2.438      1.015    0.01793     0.7355   0.02387    0.9792
56           2.444      1.018    0.01745      0.714   0.02286    0.9356
58           2.469      1.028          0          0         0         0
60           2.424      1.009    0.01945     0.8025   0.02695     1.112
59           2.468      1.027          0          0         0         0
61           2.424      1.009    0.01945     0.8025   0.02695     1.112
62           2.421      1.008    0.01913     0.7901   0.02713     1.121
63           2.419      1.007    0.01904     0.7873   0.02692     1.113
64           2.416      1.006    0.01843     0.7628   0.02623     1.086
65           2.413      1.005    0.01809     0.7497   0.02801     1.161
66           2.412      1.004    0.01772     0.7346   0.02945     1.221
67            2.49      1.037    0.02162     0.8681   0.01552    0.6233
68           2.505      1.043          0          0         0         0
72            2.49      1.037    0.02198      0.883   0.01593      0.64
97           2.489      1.036    0.02177     0.8749   0.01557    0.6255
69           2.501      1.041          0          0         0         0
70           2.498       1.04          0          0         0         0
71           2.497       1.04          0          0         0         0
73           2.486      1.035          0          0         0         0
76           2.489      1.036    0.02263     0.9089   0.01501    0.6032
74           2.482      1.033          0          0         0         0
75           2.479      1.032          0          0         0         0
77           2.491      1.037    0.02237     0.8979   0.01509    0.6058
86           2.488      1.036    0.02392     0.9614   0.01212     0.487
78           2.492      1.038    0.02226     0.8931   0.01524    0.6117
79           2.492      1.037    0.02232     0.8957   0.01508    0.6053
80           2.495      1.039    0.02158     0.8649   0.01631    0.6537
81           2.496      1.039    0.02124     0.8509   0.01692     0.678
82           2.498       1.04      0.021     0.8405   0.01704    0.6822
84            2.49      1.037          0          0         0         0
83             2.5      1.041    0.02069     0.8276   0.01733    0.6932
85           2.487      1.036          0          0         0         0
87           2.488      1.036    0.02447     0.9838   0.01077     0.433
88           2.506      1.043          0          0         0         0
89           2.487      1.036    0.02446     0.9832  0.009856    0.3962
90           2.461      1.025          0          0         0         0
91           2.487      1.036     0.0245     0.9851   0.00966    0.3884
92           2.497      1.039          0          0         0         0
93           2.487      1.035    0.02468     0.9922  0.009208    0.3703
94           2.502      1.042          0          0         0         0
95           2.487      1.035    0.02483     0.9987  0.008996    0.3618
96           2.459      1.024          0          0         0         0
98           2.488      1.036    0.02181     0.8766   0.01559    0.6267
99           2.488      1.036    0.02175     0.8743   0.01593    0.6406
100          2.487      1.036    0.02155     0.8665   0.01658    0.6667
450          2.487      1.036    0.02155     0.8665   0.01658    0.6667
197          2.489      1.036    0.02177     0.8749   0.01557    0.6255
101          2.487      1.036    0.02189     0.8801   0.01561    0.6277
102          2.485      1.035          0          0         0         0
105          2.487      1.035    0.02246     0.9031    0.0144    0.5789
103          2.482      1.033          0          0         0         0
104          2.478      1.032          0          0         0         0
106          2.467      1.027          0          0         0         0
108          2.486      1.035    0.02279     0.9169   0.01433    0.5764
107          2.463      1.026          0          0         0         0
109          2.489      1.036          0          0         0         0
300          2.486      1.035    0.02279     0.9169   0.01433    0.5764
110          2.485      1.035          0          0         0         0
111          2.483      1.034          0          0         0         0
112          2.483      1.034          0          0         0         0
113          2.479      1.032          0          0         0         0
114          2.478      1.032          0          0         0         0
135          2.444      1.018    0.01317      0.539   0.02247    0.9193
152          2.458      1.024    0.01313      0.534   0.01767    0.7189
160r         2.494      1.039    0.02128      0.853   0.01514     0.607
160          2.424      1.009    0.01945     0.8025   0.02695     1.112
61s          2.424      1.009    0.01945     0.8025   0.02695     1.112
300_open     2.429      1.011    0.01481     0.6096   0.02217    0.9127
94_open      2.415      1.006          0          0         0         0
610         0.2797      1.009   0.002244     0.8025 9.863E-010 3.526E-007
