lib/123Bus/ieee123_VLN_Node.Txt

LINE-GROUND and LINE-LINE VOLTAGES BY BUS & NODE

Bus      Node    VLN (kV)   Angle      pu     Base kV    Node-Node   VLL (kV)  Angle      pu

150 .... 1       2.4018 /_    0.0   0.99999     4.160        1-2       4.16 /_   30.0   0.99999
   -     2       2.4018 /_ -120.0   0.99999     4.160        2-3       4.16 /_  -90.0   0.99999
   -     3       2.4018 /_  120.0   0.99999     4.160        3-1       4.16 /_  150.0   0.99999
150R ... 1       2.5068 /_    0.0    1.0437     4.160        1-2     4.3419 /_   30.0    1.0437
   -     2       2.5068 /_ -120.0    1.0437     4.160        2-3      4.342 /_  -90.0    1.0437
   -     3       2.5068 /_  120.0    1.0437     4.160        3-1      4.342 /_  150.0    1.0437
149 .... 1       2.5068 /_    0.0    1.0437     4.160        1-2     4.3419 /_   30.0    1.0437
   -     2       2.5068 /_ -120.0    1.0437     4.160        2-3      4.342 /_  -90.0    1.0437
   -     3       2.5068 /_  120.0    1.0437     4.160        3-1      4.342 /_  150.0    1.0437
1 ...... 1       2.4798 /_   -0.5    1.0325     4.160        1-2     4.3073 /_   29.8    1.0354
   -     2       2.5006 /_ -120.2    1.0411     4.160        2-3     4.3208 /_  -90.4    1.0387
   -     3       2.4873 /_  119.7    1.0356     4.160        3-1     4.3063 /_  149.5    1.0352
2 ...... 2       2.5001 /_ -120.3    1.0409     4.160
3 ...... 3       2.4836 /_  119.7    1.0341     4.160
7 ...... 1       2.4597 /_   -0.9    1.0241     4.160        1-2     4.2821 /_   29.6    1.0294
   -     2       2.4961 /_ -120.4    1.0393     4.160        2-3      4.306 /_  -90.6    1.0351
   -     3       2.4746 /_  119.5    1.0303     4.160        3-1     4.2818 /_  149.2    1.0293
4 ...... 3       2.4824 /_  119.7    1.0336     4.160
5 ...... 3       2.4806 /_  119.7    1.0328     4.160
6 ...... 3       2.4791 /_  119.7    1.0322     4.160
8 ...... 1       2.4466 /_   -1.1    1.0187     4.160        1-2     4.2656 /_   29.5    1.0254
   -     2        2.493 /_ -120.6     1.038     4.160        2-3     4.2962 /_  -90.8    1.0327
   -     3       2.4663 /_  119.4    1.0269     4.160        3-1     4.2656 /_  149.0    1.0254
12 ..... 2       2.4924 /_ -120.6    1.0377     4.160
9 ...... 1       2.4433 /_   -1.2    1.0173     4.160
13 ..... 1       2.4292 /_   -1.5    1.0114     4.160        1-2     4.2425 /_   29.3    1.0198
   -     2       2.4877 /_ -120.8    1.0358     4.160        2-3     4.2815 /_  -91.0    1.0292
   -     3       2.4537 /_  119.1    1.0216     4.160        3-1     4.2422 /_  148.7    1.0198
9R ..... 1        2.428 /_   -1.2    1.0109     4.160
14 ..... 1       2.4242 /_   -1.2    1.0093     4.160
34 ..... 3       2.4515 /_  119.1    1.0207     4.160
18 ..... 1       2.4094 /_   -1.8    1.0032     4.160        1-2     4.2145 /_   29.1    1.0131
   -     2       2.4785 /_ -121.0    1.0319     4.160        2-3     4.2565 /_  -91.2    1.0232
   -     3       2.4379 /_  119.1     1.015     4.160        3-1     4.2173 /_  148.4    1.0138
11 ..... 1       2.4227 /_   -1.2    1.0087     4.160
10 ..... 1       2.4235 /_   -1.2     1.009     4.160
15 ..... 3       2.4506 /_  119.1    1.0203     4.160
16 ..... 3       2.4484 /_  119.1    1.0194     4.160
17 ..... 3       2.4496 /_  119.1    1.0199     4.160
19 ..... 1       2.4064 /_   -1.8    1.0019     4.160
21 ..... 1       2.4081 /_   -1.9    1.0026     4.160        1-2     4.2126 /_   29.1    1.0126
   -     2       2.4786 /_ -121.0     1.032     4.160        2-3     4.2548 /_  -91.2    1.0228
   -     3       2.4354 /_  119.1     1.014     4.160        3-1     4.2146 /_  148.4    1.0131
20 ..... 1       2.4045 /_   -1.9    1.0011     4.160
22 ..... 2       2.4754 /_ -121.0    1.0306     4.160
23 ..... 1       2.4072 /_   -1.9    1.0022     4.160        1-2     4.2112 /_   29.1    1.0123
   -     2       2.4794 /_ -120.9    1.0323     4.160        2-3     4.2539 /_  -91.2    1.0226
   -     3        2.433 /_  119.1     1.013     4.160        3-1     4.2124 /_  148.4    1.0126
24 ..... 3       2.4298 /_  119.1    1.0116     4.160
25 ..... 1       2.4057 /_   -2.0    1.0016     4.160        1-2     4.2096 /_   29.1    1.0119
   -     2       2.4803 /_ -120.9    1.0327     4.160        2-3     4.2532 /_  -91.3    1.0224
   -     3       2.4311 /_  119.1    1.0122     4.160        3-1     4.2105 /_  148.4    1.0121
25R .... 1       2.4057 /_   -2.0    1.0016     4.160
   -     3       2.4159 /_  119.1    1.0059     4.160        3-1     4.1972 /_  148.5    1.0089
26 ..... 1       2.4051 /_   -2.0    1.0014     4.160
   -     3       2.4149 /_  119.1    1.0054     4.160        3-1     4.1961 /_  148.5    1.0087
28 ..... 1       2.4049 /_   -2.0    1.0013     4.160        1-2     4.2088 /_   29.1    1.0117
   -     2       2.4808 /_ -120.9    1.0329     4.160        2-3      4.253 /_  -91.3    1.0224
   -     3       2.4304 /_  119.1    1.0119     4.160        3-1     4.2097 /_  148.4    1.0119
27 ..... 1       2.4043 /_   -2.0    1.0011     4.160
   -     3       2.4148 /_  119.1    1.0054     4.160        3-1     4.1958 /_  148.5    1.0086
31 ..... 3       2.4135 /_  119.1    1.0049     4.160
33 ..... 1       2.4014 /_   -2.0   0.99983     4.160
29 ..... 1       2.4045 /_   -2.0    1.0011     4.160        1-2     4.2083 /_   29.1    1.0116
   -     2       2.4811 /_ -120.9     1.033     4.160        2-3     4.2526 /_  -91.3    1.0223
   -     3       2.4294 /_  119.1    1.0115     4.160        3-1     4.2088 /_  148.4    1.0117
30 ..... 1        2.405 /_   -2.0    1.0013     4.160        1-2     4.2084 /_   29.1    1.0116
   -     2        2.481 /_ -120.9     1.033     4.160        2-3     4.2523 /_  -91.3    1.0222
   -     3       2.4285 /_  119.1    1.0111     4.160        3-1     4.2081 /_  148.4    1.0116
250 .... 1        2.405 /_   -2.0    1.0013     4.160        1-2     4.2084 /_   29.1    1.0116
   -     2        2.481 /_ -120.9     1.033     4.160        2-3     4.2523 /_  -91.3    1.0222
   -     3       2.4285 /_  119.1    1.0111     4.160        3-1     4.2081 /_  148.4    1.0116
32 ..... 3       2.4127 /_  119.1    1.0045     4.160
35 ..... 1       2.4034 /_   -1.9    1.0007     4.160        1-2     4.2046 /_   29.0    1.0107
   -     2        2.473 /_ -121.0    1.0296     4.160        2-3     4.2493 /_  -91.2    1.0215
   -     3       2.4355 /_  119.1     1.014     4.160        3-1     4.2104 /_  148.4    1.0121
36 ..... 1       2.4014 /_   -1.9   0.99985     4.160        1-2     4.2025 /_   29.0    1.0102
   -     2       2.4719 /_ -121.1    1.0292     4.160
40 ..... 1       2.4002 /_   -1.9   0.99933     4.160        1-2     4.1998 /_   29.0    1.0096
   -     2       2.4705 /_ -121.1    1.0286     4.160        2-3     4.2451 /_  -91.3    1.0205
   -     3       2.4332 /_  119.0    1.0131     4.160        3-1     4.2054 /_  148.3    1.0109
37 ..... 1       2.3996 /_   -1.9   0.99911     4.160
38 ..... 2       2.4705 /_ -121.1    1.0286     4.160
39 ..... 2       2.4695 /_ -121.1    1.0282     4.160
41 ..... 3       2.4322 /_  119.0    1.0127     4.160
42 ..... 1       2.3968 /_   -1.9   0.99791     4.160        1-2     4.1951 /_   29.0    1.0084
   -     2        2.468 /_ -121.1    1.0276     4.160        2-3      4.241 /_  -91.3    1.0195
   -     3       2.4312 /_  119.0    1.0123     4.160        3-1     4.2007 /_  148.3    1.0098
43 ..... 2       2.4649 /_ -121.1    1.0263     4.160
44 ..... 1       2.3944 /_   -2.0   0.99693     4.160        1-2     4.1917 /_   29.0    1.0076
   -     2       2.4664 /_ -121.1    1.0269     4.160        2-3     4.2382 /_  -91.3    1.0188
   -     3       2.4294 /_  119.0    1.0115     4.160        3-1     4.1971 /_  148.3    1.0089
45 ..... 1       2.3932 /_   -2.0   0.99644     4.160
47 ..... 1       2.3922 /_   -2.0   0.99601     4.160        1-2     4.1879 /_   28.9    1.0067
   -     2       2.4641 /_ -121.1     1.026     4.160        2-3     4.2346 /_  -91.4    1.0179
   -     3       2.4272 /_  118.9    1.0106     4.160        3-1     4.1928 /_  148.2    1.0079
46 ..... 1       2.3923 /_   -2.0   0.99607     4.160
48 ..... 1       2.3916 /_   -2.0   0.99576     4.160        1-2     4.1868 /_   28.9    1.0065
   -     2       2.4635 /_ -121.1    1.0257     4.160        2-3     4.2337 /_  -91.4    1.0177
   -     3       2.4267 /_  118.9    1.0104     4.160        3-1     4.1918 /_  148.2    1.0076
49 ..... 1       2.3916 /_   -2.0   0.99576     4.160        1-2     4.1864 /_   28.9    1.0063
   -     2       2.4629 /_ -121.1    1.0255     4.160        2-3     4.2332 /_  -91.4    1.0176
   -     3       2.4265 /_  118.9    1.0103     4.160        3-1     4.1914 /_  148.2    1.0075
50 ..... 1       2.3915 /_   -2.0   0.99574     4.160        1-2      4.186 /_   28.9    1.0063
   -     2        2.463 /_ -121.1    1.0255     4.160        2-3      4.233 /_  -91.4    1.0175
   -     3       2.4258 /_  118.9      1.01     4.160        3-1     4.1907 /_  148.2    1.0074
51 ..... 1       2.3912 /_   -2.0   0.99559     4.160        1-2     4.1858 /_   28.9    1.0062
   -     2       2.4632 /_ -121.1    1.0256     4.160        2-3      4.233 /_  -91.4    1.0176
   -     3       2.4258 /_  118.9      1.01     4.160        3-1     4.1906 /_  148.2    1.0073
151 .... 1       2.3912 /_   -2.0   0.99559     4.160        1-2     4.1858 /_   28.9    1.0062
   -     2       2.4632 /_ -121.1    1.0256     4.160        2-3      4.233 /_  -91.4    1.0176
   -     3       2.4258 /_  118.9      1.01     4.160        3-1     4.1906 /_  148.2    1.0073
52 ..... 1       2.4161 /_   -1.8     1.006     4.160        1-2     4.2259 /_   29.1    1.0158
   -     2       2.4842 /_ -121.0    1.0343     4.160        2-3     4.2722 /_  -91.3     1.027
   -     3       2.4463 /_  118.9    1.0185     4.160        3-1     4.2265 /_  148.4     1.016
53 ..... 1       2.4102 /_   -1.9    1.0035     4.160        1-2      4.218 /_   29.0     1.014
   -     2       2.4822 /_ -121.1    1.0335     4.160        2-3     4.2675 /_  -91.4    1.0259
   -     3       2.4426 /_  118.8     1.017     4.160        3-1     4.2189 /_  148.2    1.0142
54 ..... 1       2.4068 /_   -2.0    1.0021     4.160        1-2     4.2134 /_   28.9    1.0128
   -     2       2.4808 /_ -121.1    1.0329     4.160        2-3     4.2646 /_  -91.5    1.0251
   -     3       2.4403 /_  118.8    1.0161     4.160        3-1     4.2143 /_  148.1    1.0131
55 ..... 1       2.4064 /_   -2.0    1.0019     4.160        1-2      4.213 /_   28.9    1.0127
   -     2       2.4806 /_ -121.1    1.0328     4.160        2-3     4.2643 /_  -91.5    1.0251
   -     3       2.4405 /_  118.8    1.0161     4.160        3-1     4.2141 /_  148.1     1.013
57 ..... 1       2.3997 /_   -2.3   0.99913     4.160        1-2        4.2 /_   28.7    1.0096
   -     2       2.4744 /_ -121.3    1.0302     4.160        2-3      4.254 /_  -91.6    1.0226
   -     3       2.4343 /_  118.6    1.0135     4.160        3-1     4.2043 /_  147.9    1.0107
56 ..... 1       2.4063 /_   -2.0    1.0019     4.160        1-2     4.2128 /_   28.9    1.0127
   -     2       2.4803 /_ -121.1    1.0327     4.160        2-3     4.2641 /_  -91.5     1.025
   -     3       2.4407 /_  118.8    1.0162     4.160        3-1     4.2141 /_  148.1     1.013
58 ..... 2       2.4729 /_ -121.3    1.0296     4.160
60 ..... 1       2.3848 /_   -2.8   0.99293     4.160        1-2     4.1721 /_   28.3    1.0029
   -     2       2.4628 /_ -121.6    1.0254     4.160        2-3      4.233 /_  -92.0    1.0175
   -     3       2.4203 /_  118.2    1.0077     4.160        3-1     4.1829 /_  147.4    1.0055
59 ..... 2       2.4722 /_ -121.3    1.0293     4.160
61 ..... 1       2.3848 /_   -2.8   0.99293     4.160        1-2     4.1721 /_   28.3    1.0029
   -     2       2.4628 /_ -121.6    1.0254     4.160        2-3      4.233 /_  -92.0    1.0175
   -     3       2.4203 /_  118.2    1.0077     4.160        3-1     4.1829 /_  147.4    1.0055
62 ..... 1        2.383 /_   -2.8    0.9922     4.160        1-2      4.168 /_   28.3    1.0019
   -     2       2.4602 /_ -121.6    1.0243     4.160        2-3     4.2273 /_  -92.0    1.0162
   -     3       2.4155 /_  118.2    1.0057     4.160        3-1     4.1769 /_  147.5    1.0041
63 ..... 1       2.3817 /_   -2.8   0.99163     4.160        1-2     4.1651 /_   28.4    1.0012
   -     2       2.4582 /_ -121.6    1.0235     4.160        2-3     4.2239 /_  -92.0    1.0154
   -     3       2.4131 /_  118.2    1.0047     4.160        3-1     4.1733 /_  147.5    1.0032
64 ..... 1       2.3809 /_   -2.8   0.99133     4.160        1-2     4.1603 /_   28.4    1.0001
   -     2       2.4539 /_ -121.5    1.0217     4.160        2-3      4.217 /_  -92.0    1.0137
   -     3       2.4081 /_  118.2    1.0026     4.160        3-1     4.1674 /_  147.5    1.0018
65 ..... 1       2.3793 /_   -2.8   0.99065     4.160        1-2     4.1573 /_   28.4   0.99935
   -     2       2.4531 /_ -121.5    1.0214     4.160        2-3     4.2111 /_  -92.0    1.0123
   -     3       2.4011 /_  118.2   0.99973     4.160        3-1     4.1601 /_  147.5         1
66 ..... 1       2.3798 /_   -2.8   0.99086     4.160        1-2     4.1572 /_   28.4   0.99933
   -     2       2.4537 /_ -121.5    1.0216     4.160        2-3     4.2091 /_  -92.0    1.0118
   -     3       2.3977 /_  118.2   0.99829     4.160        3-1     4.1581 /_  147.6   0.99954
67 ..... 1       2.4995 /_   -3.0    1.0407     4.160        1-2     4.2806 /_   27.4     1.029
   -     2       2.4758 /_ -121.8    1.0308     4.160        2-3     4.3048 /_  -91.7    1.0348
   -     3        2.491 /_  118.1    1.0372     4.160        3-1     4.3462 /_  147.6    1.0448
68 ..... 1       2.4961 /_   -3.1    1.0393     4.160
72 ..... 1       2.5001 /_   -3.1    1.0409     4.160        1-2     4.2793 /_   27.3    1.0287
   -     2       2.4736 /_ -121.8    1.0299     4.160        2-3     4.3026 /_  -91.8    1.0343
   -     3       2.4903 /_  118.0    1.0368     4.160        3-1     4.3457 /_  147.5    1.0446
97 ..... 1       2.4973 /_   -3.1    1.0398     4.160        1-2     4.2772 /_   27.4    1.0282
   -     2       2.4746 /_ -121.8    1.0303     4.160        2-3     4.3023 /_  -91.7    1.0342
   -     3       2.4894 /_  118.1    1.0365     4.160        3-1     4.3435 /_  147.6    1.0441
69 ..... 1       2.4922 /_   -3.1    1.0376     4.160
70 ..... 1       2.4894 /_   -3.1    1.0365     4.160
71 ..... 1       2.4878 /_   -3.1    1.0358     4.160
73 ..... 3       2.4854 /_  118.0    1.0348     4.160
76 ..... 1       2.4997 /_   -3.2    1.0408     4.160        1-2     4.2785 /_   27.3    1.0285
   -     2       2.4723 /_ -121.9    1.0294     4.160        2-3     4.3017 /_  -91.9    1.0341
   -     3       2.4914 /_  117.9    1.0373     4.160        3-1     4.3465 /_  147.4    1.0448
74 ..... 3       2.4813 /_  117.9    1.0331     4.160
75 ..... 3        2.479 /_  117.9    1.0321     4.160
77 ..... 1        2.502 /_   -3.2    1.0417     4.160        1-2     4.2825 /_   27.2    1.0295
   -     2       2.4744 /_ -122.0    1.0302     4.160        2-3     4.3049 /_  -91.9    1.0348
   -     3       2.4931 /_  117.9     1.038     4.160        3-1     4.3497 /_  147.4    1.0456
86 ..... 1       2.4978 /_   -3.2      1.04     4.160        1-2     4.2759 /_   27.2    1.0279
   -     2       2.4683 /_ -122.1    1.0277     4.160        2-3     4.2983 /_  -91.9    1.0333
   -     3       2.4942 /_  117.9    1.0385     4.160        3-1     4.3472 /_  147.4     1.045
78 ..... 1       2.5025 /_   -3.2     1.042     4.160        1-2     4.2837 /_   27.2    1.0297
   -     2       2.4752 /_ -122.0    1.0306     4.160        2-3      4.306 /_  -92.0    1.0351
   -     3       2.4934 /_  117.9    1.0381     4.160        3-1     4.3505 /_  147.4    1.0458
79 ..... 1       2.5019 /_   -3.3    1.0417     4.160        1-2     4.2831 /_   27.2    1.0296
   -     2       2.4755 /_ -122.0    1.0307     4.160        2-3     4.3059 /_  -92.0    1.0351
   -     3       2.4933 /_  117.9    1.0381     4.160        3-1     4.3502 /_  147.4    1.0457
80 ..... 1       2.5067 /_   -3.3    1.0437     4.160        1-2       4.29 /_   27.1    1.0313
   -     2       2.4785 /_ -122.1    1.0319     4.160        2-3      4.311 /_  -92.0    1.0363
   -     3        2.495 /_  117.8    1.0388     4.160        3-1     4.3546 /_  147.3    1.0468
81 ..... 1       2.5083 /_   -3.3    1.0443     4.160        1-2     4.2925 /_   27.1    1.0319
   -     2       2.4802 /_ -122.1    1.0326     4.160        2-3     4.3132 /_  -92.1    1.0368
   -     3       2.4953 /_  117.7    1.0389     4.160        3-1     4.3562 /_  147.3    1.0472
82 ..... 1         2.51 /_   -3.4    1.0451     4.160        1-2     4.2961 /_   27.1    1.0327
   -     2       2.4827 /_ -122.1    1.0337     4.160        2-3     4.3168 /_  -92.1    1.0377
   -     3       2.4969 /_  117.7    1.0396     4.160        3-1      4.359 /_  147.2    1.0478
84 ..... 3       2.4895 /_  117.7    1.0365     4.160
83 ..... 1       2.5124 /_   -3.4     1.046     4.160        1-2     4.3001 /_   27.1    1.0337
   -     2       2.4849 /_ -122.1    1.0346     4.160        2-3     4.3204 /_  -92.1    1.0386
   -     3       2.4985 /_  117.7    1.0403     4.160        3-1     4.3621 /_  147.2    1.0486
85 ..... 3       2.4868 /_  117.7    1.0354     4.160
87 ..... 1       2.4966 /_   -3.2    1.0395     4.160        1-2     4.2745 /_   27.1    1.0275
   -     2       2.4664 /_ -122.1    1.0269     4.160        2-3     4.2965 /_  -91.9    1.0328
   -     3       2.4953 /_  117.9    1.0389     4.160        3-1     4.3471 /_  147.4     1.045
88 ..... 1       2.4965 /_   -3.2    1.0394     4.160
89 ..... 1       2.4957 /_   -3.2    1.0391     4.160        1-2     4.2742 /_   27.1    1.0275
   -     2       2.4658 /_ -122.2    1.0267     4.160        2-3      4.296 /_  -91.9    1.0327
   -     3       2.4961 /_  117.9    1.0393     4.160        3-1     4.3466 /_  147.3    1.0449
90 ..... 2       2.4655 /_ -122.2    1.0265     4.160
91 ..... 1       2.4953 /_   -3.2    1.0389     4.160        1-2     4.2735 /_   27.1    1.0273
   -     2       2.4651 /_ -122.2    1.0264     4.160        2-3     4.2958 /_  -91.9    1.0326
   -     3       2.4965 /_  117.9    1.0394     4.160        3-1     4.3463 /_  147.3    1.0448
92 ..... 3       2.4962 /_  117.8    1.0393     4.160
93 ..... 1       2.4946 /_   -3.2    1.0387     4.160        1-2     4.2728 /_   27.1    1.0271
   -     2       2.4647 /_ -122.2    1.0262     4.160        2-3     4.2952 /_  -91.9    1.0325
   -     3       2.4967 /_  117.9    1.0395     4.160        3-1     4.3461 /_  147.3    1.0447
94 ..... 1       2.4931 /_   -3.2     1.038     4.160
95 ..... 1       2.4946 /_   -3.2    1.0386     4.160        1-2     4.2726 /_   27.1    1.0271
   -     2       2.4639 /_ -122.2    1.0259     4.160        2-3     4.2946 /_  -91.9    1.0324
   -     3       2.4971 /_  117.9    1.0397     4.160        3-1     4.3461 /_  147.3    1.0447
96 ..... 2       2.4633 /_ -122.2    1.0256     4.160
98 ..... 1       2.4969 /_   -3.1    1.0396     4.160        1-2     4.2763 /_   27.4     1.028
   -     2       2.4741 /_ -121.8    1.0301     4.160        2-3     4.3015 /_  -91.8     1.034
   -     3        2.489 /_  118.1    1.0363     4.160        3-1     4.3428 /_  147.5    1.0439
99 ..... 1       2.4975 /_   -3.1    1.0399     4.160        1-2     4.2757 /_   27.4    1.0278
   -     2       2.4723 /_ -121.8    1.0294     4.160        2-3     4.2999 /_  -91.8    1.0336
   -     3       2.4882 /_  118.0     1.036     4.160        3-1     4.3417 /_  147.5    1.0437
100 .... 1       2.4979 /_   -3.1      1.04     4.160        1-2     4.2757 /_   27.4    1.0278
   -     2       2.4722 /_ -121.8    1.0293     4.160        2-3     4.2996 /_  -91.8    1.0335
   -     3       2.4873 /_  118.0    1.0356     4.160        3-1      4.341 /_  147.5    1.0435
450 .... 1       2.4979 /_   -3.1      1.04     4.160        1-2     4.2757 /_   27.4    1.0278
   -     2       2.4722 /_ -121.8    1.0293     4.160        2-3     4.2996 /_  -91.8    1.0335
   -     3       2.4873 /_  118.0    1.0356     4.160        3-1      4.341 /_  147.5    1.0435
197 .... 1       2.4973 /_   -3.1    1.0398     4.160        1-2     4.2772 /_   27.4    1.0282
   -     2       2.4746 /_ -121.8    1.0303     4.160        2-3     4.3023 /_  -91.7    1.0342
   -     3       2.4894 /_  118.1    1.0365     4.160        3-1     4.3435 /_  147.6    1.0441
101 .... 1       2.4956 /_   -3.1     1.039     4.160        1-2     4.2747 /_   27.4    1.0276
   -     2        2.474 /_ -121.8    1.0301     4.160        2-3     4.3007 /_  -91.8    1.0338
   -     3       2.4882 /_  118.1     1.036     4.160        3-1     4.3415 /_  147.5    1.0436
102 .... 3        2.485 /_  118.1    1.0347     4.160
105 .... 1       2.4927 /_   -3.1    1.0379     4.160        1-2      4.272 /_   27.4    1.0269
   -     2       2.4737 /_ -121.8    1.0299     4.160        2-3     4.2995 /_  -91.8    1.0335
   -     3       2.4888 /_  118.1    1.0362     4.160        3-1     4.3408 /_  147.5    1.0435
103 .... 3       2.4813 /_  118.0    1.0331     4.160
104 .... 3       2.4773 /_  118.0    1.0314     4.160
106 .... 2       2.4711 /_ -121.8    1.0288     4.160
108 .... 1       2.4895 /_   -3.2    1.0365     4.160        1-2     4.2695 /_   27.4    1.0263
   -     2        2.475 /_ -121.8    1.0305     4.160        2-3     4.2994 /_  -91.8    1.0335
   -     3       2.4885 /_  118.1    1.0361     4.160        3-1     4.3397 /_  147.5    1.0432
107 .... 2       2.4677 /_ -121.9    1.0275     4.160
109 .... 1       2.4803 /_   -3.2    1.0327     4.160
300 .... 1       2.4895 /_   -3.2    1.0365     4.160        1-2     4.2695 /_   27.4    1.0263
   -     2        2.475 /_ -121.8    1.0305     4.160        2-3     4.2994 /_  -91.8    1.0335
   -     3       2.4885 /_  118.1    1.0361     4.160        3-1     4.3397 /_  147.5    1.0432
110 .... 1       2.4758 /_   -3.3    1.0308     4.160
111 .... 1       2.4742 /_   -3.3    1.0301     4.160
112 .... 1       2.4743 /_   -3.3    1.0302     4.160
113 .... 1       2.4696 /_   -3.3    1.0282     4.160
114 .... 1       2.4687 /_   -3.3    1.0279     4.160
135 .... 1       2.4094 /_   -1.8    1.0032     4.160        1-2     4.2145 /_   29.1    1.0131
   -     2       2.4785 /_ -121.0    1.0319     4.160        2-3     4.2565 /_  -91.2    1.0232
   -     3       2.4379 /_  119.1     1.015     4.160        3-1     4.2173 /_  148.4    1.0138
152 .... 1       2.4292 /_   -1.5    1.0114     4.160        1-2     4.2425 /_   29.3    1.0198
   -     2       2.4877 /_ -120.8    1.0358     4.160        2-3     4.2815 /_  -91.0    1.0292
   -     3       2.4537 /_  119.1    1.0216     4.160        3-1     4.2422 /_  148.7    1.0198
160R ... 1        2.504 /_   -2.8    1.0426     4.160        1-2     4.2878 /_   27.6    1.0307
   -     2       2.4782 /_ -121.6    1.0318     4.160        2-3     4.3119 /_  -91.6    1.0365
   -     3       2.4959 /_  118.2    1.0392     4.160        3-1     4.3525 /_  147.7    1.0463
160 .... 1       2.3848 /_   -2.8   0.99293     4.160        1-2     4.1721 /_   28.3    1.0029
   -     2       2.4628 /_ -121.6    1.0254     4.160        2-3      4.233 /_  -92.0    1.0175
   -     3       2.4203 /_  118.2    1.0077     4.160        3-1     4.1829 /_  147.4    1.0055
61S .... 1       2.3848 /_   -2.8   0.99293     4.160        1-2     4.1721 /_   28.3    1.0029
   -     2       2.4628 /_ -121.6    1.0254     4.160        2-3      4.233 /_  -92.0    1.0175
   -     3       2.4203 /_  118.2    1.0077     4.160        3-1     4.1829 /_  147.4    1.0055
300_OPEN 1       2.3912 /_   -2.0   0.99559     4.160        1-2     4.1858 /_   28.9    1.0062
   -     2       2.4632 /_ -121.1    1.0256     4.160        2-3      4.233 /_  -91.4    1.0176
   -     3       2.4258 /_  118.9      1.01     4.160        3-1     4.1906 /_  148.2    1.0073
94_OPEN  1       2.4068 /_   -2.0    1.0021     4.160
610 .... 1      0.27705 /_   -2.2   0.99973     0.480        1-2     0.4814 /_   28.3    1.0029
   -     2      0.28041 /_ -121.6    1.0118     0.480        2-3    0.48842 /_  -92.0    1.0175
   -     3      0.28112 /_  117.5    1.0144     0.480        3-1    0.48264 /_  147.4    1.0055
